10
his.xyz	-20.0000000
  N       11.62000       -9.70700       11.64300
  C       12.61700       -8.70400       12.02600
  C       12.10400       -7.30500       12.27300
  O       12.92900       -6.40500       12.55400
  C       13.73400       -8.56100       10.92400
  C       14.54600       -9.82000       10.83900
  N       14.28700      -10.84800        9.98400
  C       15.62500      -10.18400       11.56900
  C       15.17600      -11.80800       10.18000
  N       16.01400      -11.42600       11.13500
